Circuit: * C:\Users\dcyle\Desktop\1UoA\2024\ELECT310\ee310-team16\Phase3-Receiver\newLTspice\RX.asc

WARNING: Node NC_01 is floating.

WARNING: Less than two connections to node U2-.  This node is used by V4.
WARNING: Less than two connections to node N015.  This node is used by R22.
WARNING: Less than two connections to node NC_01.  This node is used by I2-0%FULL.
Early termination of direct N-R iteration.
Direct Newton iteration failed to find .op point.  (Use ".option noopiter" to skip.)
Starting Gmin stepping
Increasing initial diagonal Gmin to 100
Gmin = 100
vernier = 0.5
Gmin = 18.6414
vernier = 0.25
vernier = 0.125
vernier = 0.0625
vernier = 0.03125
Gmin = 19.4331
vernier = 0.015625
vernier = 0.0078125
vernier = 0.00390625
vernier = 0.00195313
Gmin = 19.5276
vernier = 0.000976563
vernier = 0.000488281
Gmin = 0
Gmin stepping failed

Starting source stepping with srcstepmethod=0
Source Step = 3.0303%
Source Step = 33.3333%
Source Step = 63.6364%
Source Step = 93.9394%
Source stepping succeeded in finding the operating point.


Date: Fri Apr 26 15:45:06 2024
Total elapsed time: 14.205 seconds.

tnom = 27
temp = 27
method = modified trap
totiter = 199107
traniter = 197197
tranpoints = 62064
accept = 48456
rejected = 13608
matrix size = 187
fillins = 1084
solver = Normal
Thread vector: 30.3/20.3[4] 13.8/8.9[4] 9.6/6.8[4] 1.6/4.0[1]  2592/500
Matrix Compiler1: 76.40 KB object code size  24.5/15.2/[6.4]
Matrix Compiler2: 34.59 KB object code size  12.1/10.2/[3.1]

