Circuit: * C:\Users\aldon\Documents\ee310-team16\Phase2-Transmitter\LTSpice\Phase-2-hardware-design.asc

Warning: Multiple definitions of model "2scr375p" Type: BJT
Warning: Multiple definitions of model "bc857b" Type: BJT
Warning: Multiple definitions of model "bc847c" Type: BJT
Warning: Multiple definitions of model "bc847b" Type: BJT
Warning: Multiple definitions of model "bc547b" Type: BJT
Early termination of direct N-R iteration.
Direct Newton iteration failed to find .op point.  (Use ".option noopiter" to skip.)
Starting Gmin stepping
Increasing initial diagonal Gmin to 100
Gmin = 100
Gmin = 10.7374
vernier = 0.5
Gmin = 2.224
vernier = 0.25
vernier = 0.125
Gmin = 1.64093
vernier = 0.166667
vernier = 0.0833333
Gmin = 1.34966
vernier = 0.0416667
vernier = 0.0555555
vernier = 0.0277778
Gmin = 1.29023
vernier = 0.037037
vernier = 0.0185185
vernier = 0.00925925
Gmin = 1.23777
vernier = 0.00462963
vernier = 0.00231481
vernier = 0.00115741
Gmin = 1.22992
vernier = 0.000578703
vernier = 0.000771604
Gmin = 1.22832
vernier = 0.00102881
vernier = 0.000514403
Gmin = 1.22667
Gmin = 0
Gmin stepping failed

Starting source stepping with srcstepmethod=0
Source Step = 3.0303%
Source Step = 33.3333%
Source Step = 63.6364%
Source Step = 93.9394%
Source stepping succeeded in finding the operating point.


Date: Sat Apr 13 16:02:27 2024
Total elapsed time: 0.294 seconds.

tnom = 27
temp = 27
method = modified trap
totiter = 6945
traniter = 2560
tranpoints = 1281
accept = 1281
rejected = 0
matrix size = 67
fillins = 253
solver = Normal
Avg thread counts: 2.1/3.1/3.1/2.1
Matrix Compiler1: 23.09 KB object code size  3.9/2.4/[1.6]
Matrix Compiler2: 9.91 KB object code size  0.6/0.6/[0.5]

