Circuit: * C:\Users\dcyle\Desktop\1UoA\2024\ELECT310\ee310-team16\Phase2-Transmitter\LTSpice\Phase-2-hardware-design.asc

Warning: Multiple definitions of model "2scr375p" Type: BJT
Warning: Multiple definitions of model "bc857b" Type: BJT
Warning: Multiple definitions of model "bc847c" Type: BJT
Warning: Multiple definitions of model "bc847b" Type: BJT
Warning: Multiple definitions of model "bc547b" Type: BJT
WARNING: Node 120 is floating.

Direct Newton iteration failed to find .op point.  (Use ".option noopiter" to skip.)
Starting Gmin stepping
Increasing initial diagonal Gmin to 100
Gmin = 100
vernier = 0.5
Gmin = 16.7772
vernier = 0.25
vernier = 0.125
vernier = 0.0625
vernier = 0.03125
Gmin = 15.3118
vernier = 0.015625
vernier = 0.0078125
vernier = 0.00390625
vernier = 0.00195313
Gmin = 15.2671
vernier = 0.000976563
vernier = 0.000488281
Gmin = 0
Gmin stepping failed

Starting source stepping with srcstepmethod=0
Source Step = 3.0303%
Source Step = 33.3333%
Source Step = 63.6364%
Source Step = 93.9394%
Source stepping succeeded in finding the operating point.


Date: Thu Apr 18 11:33:27 2024
Total elapsed time: 3.165 seconds.

tnom = 27
temp = 27
method = modified trap
totiter = 113617
traniter = 111757
tranpoints = 27549
accept = 20169
rejected = 7380
matrix size = 103
fillins = 324
solver = Normal
Thread vector: 15.0/13.2[2] 3.7/5.5[1] 6.8/5.7[2] 0.6/6.0[1]  2592/500
Matrix Compiler1: 27.30 KB object code size  5.9/2.8/[1.5]
Matrix Compiler2: 14.64 KB object code size  2.4/3.8/[0.8]

