Circuit: * C:\Users\dlee886\OneDrive - The University of Auckland\Documents\GitHub\ee310-team16\Phase2-Transmitter\LTSpice\Phase-2-hardware-design.asc

Early termination of direct N-R iteration.
Direct Newton iteration failed to find .op point.  (Use ".option noopiter" to skip.)
Starting Gmin stepping
Gmin = 10
vernier = 0.5
vernier = 0.25
vernier = 0.125
vernier = 0.0625
Gmin = 8.61953
vernier = 0.03125
vernier = 0.015625
vernier = 0.0078125
vernier = 0.00390625
Gmin = 8.47038
vernier = 0.00195313
vernier = 0.000976563
vernier = 0.000488281
Gmin = 0
Gmin stepping failed

Starting source stepping with srcstepmethod=0
Source Step = 3.0303%
Source Step = 33.3333%
Source Step = 63.6364%
Source Step = 93.9394%
Source stepping succeeded in finding the operating point.


Date: Thu Mar 14 15:16:01 2024
Total elapsed time: 0.703 seconds.

tnom = 27
temp = 27
method = modified trap
totiter = 160563
traniter = 158935
tranpoints = 47254
accept = 32005
rejected = 15249
matrix size = 58
fillins = 277
solver = Normal
Matrix Compiler1: 23.36 KB object code size  2.3/0.8/[0.5]
Matrix Compiler2: 9.54 KB object code size  0.4/0.5/[0.3]

