Circuit: * C:\Users\dlee886\OneDrive - The University of Auckland\Documents\GitHub\ee310-team16\Phase2-Transmitter\LTSpice\Phase-2-hardware-design.asc

Early termination of direct N-R iteration.
Direct Newton iteration failed to find .op point.  (Use ".option noopiter" to skip.)
Starting Gmin stepping
Gmin = 10
Gmin = 1.07374
vernier = 0.5
vernier = 0.25
vernier = 0.125
vernier = 0.0625
Gmin = 1.1391
vernier = 0.03125
vernier = 0.015625
vernier = 0.0078125
vernier = 0.00390625
Gmin = 1.12806
vernier = 0.00195313
vernier = 0.000976563
Gmin = 1.12449
vernier = 0.00130208
vernier = 0.000651042
vernier = 0.000488281
vernier = 0.000651041
Gmin = 1.12325
vernier = 0.000488281
Gmin = 0
Gmin stepping failed

Starting source stepping with srcstepmethod=0
Source Step = 3.0303%
Source Step = 33.3333%
Source Step = 63.6364%
Source Step = 93.9394%
Source stepping succeeded in finding the operating point.


Date: Thu Mar 14 15:43:20 2024
Total elapsed time: 0.849 seconds.

tnom = 27
temp = 27
method = modified trap
totiter = 106297
traniter = 103128
tranpoints = 30417
accept = 21377
rejected = 9040
matrix size = 58
fillins = 349
solver = Normal
Matrix Compiler1: 27.69 KB object code size  3.9/0.9/[0.6]
Matrix Compiler2: 10.73 KB object code size  0.7/0.8/[0.3]

