Circuit: * C:\Users\dlee886\OneDrive - The University of Auckland\Documents\GitHub\ee310-team16\Phase2-Transmitter\LTSpice\Phase-2-hardware-design.asc

Direct Newton iteration for .op point succeeded.

Date: Thu Mar 14 15:56:53 2024
Total elapsed time: 0.034 seconds.

tnom = 27
temp = 27
method = modified trap
totiter = 2111
traniter = 2108
tranpoints = 1055
accept = 1055
rejected = 0
matrix size = 12
fillins = 5
solver = Normal
Matrix Compiler1: 718 bytes object code size  0.2/0.1/[0.1]
Matrix Compiler2: 1.04 KB object code size  0.1/0.1/[0.1]

