Circuit: * C:\Users\dcyle\Desktop\1UoA\2024\ELECT310\ee310-team16\Phase2-Transmitter\LTSpice\Phase-2-hardware-design.asc

Warning: Multiple definitions of model "2scr375p" Type: BJT
Warning: Multiple definitions of model "bc857b" Type: BJT
Warning: Multiple definitions of model "bc847c" Type: BJT
Warning: Multiple definitions of model "bc847b" Type: BJT
Early termination of direct N-R iteration.
Direct Newton iteration failed to find .op point.  (Use ".option noopiter" to skip.)
Starting Gmin stepping
Increasing initial diagonal Gmin to 100
Gmin = 100
vernier = 0.5
Gmin = 18.6414
vernier = 0.25
vernier = 0.125
vernier = 0.0625
vernier = 0.03125
Gmin = 19.4331
vernier = 0.015625
vernier = 0.0078125
vernier = 0.00390625
vernier = 0.00195313
Gmin = 19.5276
vernier = 0.000976563
vernier = 0.000488281
Gmin = 0
Gmin stepping failed

Starting source stepping with srcstepmethod=0
Source Step = 3.0303%
Source Step = 33.3333%
Source Step = 63.6364%
Source Step = 93.9394%
Source stepping succeeded in finding the operating point.


Date: Thu Mar 21 14:22:30 2024
Total elapsed time: 1.747 seconds.

tnom = 27
temp = 27
method = modified trap
totiter = 138974
traniter = 137181
tranpoints = 32216
accept = 23550
rejected = 8666
matrix size = 61
fillins = 216
solver = Normal
Matrix Compiler1: 18.08 KB object code size  4.0/2.9/[2.1]
Matrix Compiler2: 8.83 KB object code size  1.1/1.3/[0.5]

