Circuit: * C:\Users\dcyle\Desktop\1UoA\2024\ELECT310\ee310-team16\Phase2-Transmitter\LTSpice\Phase-2-hardware-design.asc

Early termination of direct N-R iteration.
Direct Newton iteration failed to find .op point.  (Use ".option noopiter" to skip.)
Starting Gmin stepping
Increasing initial diagonal Gmin to 100
Gmin = 100
vernier = 0.5
Gmin = 18.6414
vernier = 0.25
vernier = 0.125
vernier = 0.0625
vernier = 0.03125
Gmin = 19.4331
vernier = 0.015625
vernier = 0.0078125
vernier = 0.00390625
vernier = 0.00195313
Gmin = 19.5276
vernier = 0.000976563
vernier = 0.000488281
Gmin = 0
Gmin stepping failed

Starting source stepping with srcstepmethod=0
Source Step = 3.0303%
Source Step = 33.3333%
Source Step = 63.6364%
Source Step = 93.9394%
Source stepping succeeded in finding the operating point.


Date: Tue Mar 19 00:22:04 2024
Total elapsed time: 5.020 seconds.

tnom = 27
temp = 27
method = modified trap
totiter = 595965
traniter = 594162
tranpoints = 162509
accept = 112899
rejected = 49610
matrix size = 58
fillins = 228
solver = Normal
Matrix Compiler1: 20.08 KB object code size  7.0/3.2/[1.3]
Matrix Compiler2: 8.68 KB object code size  1.2/1.9/[0.9]

