Circuit: * C:\Users\aldon\Documents\ee310-team16\Phase2-Transmitter\LTSpice\Phase-2-hardware-design.asc

Warning: Multiple definitions of model "2scr375p" Type: BJT
Warning: Multiple definitions of model "bc857b" Type: BJT
Warning: Multiple definitions of model "bc847c" Type: BJT
Warning: Multiple definitions of model "bc847b" Type: BJT
Early termination of direct N-R iteration.
Direct Newton iteration failed to find .op point.  (Use ".option noopiter" to skip.)
Starting Gmin stepping
Gmin = 10
Gmin = 1.07374
Gmin = 0.115292
Gmin = 0.0123794
Gmin = 0.00132923
Gmin = 0.000142725
Gmin = 1.5325e-05
Gmin = 1.6455e-06
vernier = 0.5
vernier = 0.25
Gmin = 5.63868e-07
vernier = 0.125
vernier = 0.0625
vernier = 0.03125
vernier = 0.015625
vernier = 0.0078125
Gmin = 5.96779e-07
vernier = 0.00390625
vernier = 0.00195312
vernier = 0.000976562
vernier = 0.000488281
Gmin = 5.9547e-07
Gmin = 0
Gmin stepping failed

Starting source stepping with srcstepmethod=0
Source Step = 3.0303%
Source Step = 33.3333%
Source Step = 63.6364%
Source Step = 93.9394%
Source stepping succeeded in finding the operating point.


Date: Thu Mar 21 14:29:52 2024
Total elapsed time: 1.749 seconds.

tnom = 27
temp = 27
method = modified trap
totiter = 139140
traniter = 137183
tranpoints = 32273
accept = 23629
rejected = 8644
matrix size = 61
fillins = 293
solver = Normal
Avg thread counts: 1.0/1.1/1.1/1.0
Matrix Compiler1: 24.40 KB object code size  5.7/4.1/[2.4]
Matrix Compiler2:     707 opcodes  1.0/[1.0]/1.2

