Circuit: * C:\Users\dcyle\Desktop\1UoA\2024\ELECT310\ee310-team16\Phase2-Transmitter\LTSpice\Phase-2-hardware-design.asc

Direct Newton iteration for .op point succeeded.

Date: Mon Mar 18 22:59:07 2024
Total elapsed time: 0.109 seconds.

tnom = 27
temp = 27
method = modified trap
totiter = 2111
traniter = 2108
tranpoints = 1055
accept = 1055
rejected = 0
matrix size = 12
fillins = 5
solver = Normal
Matrix Compiler1: 718 bytes object code size  0.3/0.2/[0.1]
Matrix Compiler2: 1.04 KB object code size  0.2/0.2/[0.1]

