Circuit: * C:\Users\dcyle\Desktop\1UoA\2024\ELECT310\ee310-team16\Phase3-Receiver\LTSpice\photodiodeMaybe.asc

.OP point found by inspection.

Date: Mon Apr 22 22:36:56 2024
Total elapsed time: 0.174 seconds.

tnom = 27
temp = 27
method = modified trap
totiter = 41086
traniter = 41086
tranpoints = 20243
accept = 17042
rejected = 3201
matrix size = 2
fillins = 0
solver = Normal
Matrix Compiler1:       1 opcodes  0.0/[0.0]/0.0
Matrix Compiler2: off  [0.1]/0.1/0.1

